Version 4
SHEET 1 2016 680
WIRE 1184 -1408 1184 -1440
WIRE 1184 -1328 1184 -1376
WIRE 1296 -1296 1296 -1392
WIRE 1184 -1168 1184 -1216
WIRE 1296 -1152 1296 -1264
WIRE 1184 -1104 1184 -1136
WIRE 1792 -864 1792 -896
WIRE 1792 -784 1792 -832
WIRE -1136 -672 -1216 -672
WIRE 1808 -656 1792 -656
WIRE 1904 -656 1904 -848
WIRE 1904 -656 1824 -656
WIRE -1136 -624 -1216 -624
WIRE -1136 -576 -1216 -576
WIRE 1200 -560 1104 -560
WIRE -1136 -528 -1216 -528
WIRE 1200 -528 1104 -528
WIRE 80 -512 80 -544
WIRE 1824 -512 1824 -656
WIRE 1840 -512 1824 -512
WIRE 1200 -496 1136 -496
WIRE 1808 -480 1808 -656
WIRE 1840 -480 1808 -480
WIRE 1104 -448 1104 -528
WIRE 1792 -448 1792 -528
WIRE 1840 -448 1792 -448
WIRE 80 -432 80 -480
WIRE 1840 -416 1792 -416
WIRE -1136 -368 -1216 -368
WIRE 688 -368 672 -368
WIRE -1136 -320 -1216 -320
WIRE 1136 -320 1136 -496
WIRE 1136 -320 1104 -320
WIRE -1136 -272 -1216 -272
WIRE -1136 -224 -1216 -224
FLAG -16 240 0
FLAG -16 160 CLK
FLAG -128 240 0
FLAG -128 160 VCC
FLAG 912 96 VCC
FLAG 1184 96 VCC
FLAG 1456 96 VCC
FLAG 1728 96 VCC
FLAG 1728 -128 VCC
FLAG 1456 -128 VCC
FLAG 1184 -128 VCC
FLAG 912 -128 VCC
FLAG 816 -16 CLK
FLAG 1088 -16 CLK
FLAG 1360 -16 CLK
FLAG 1632 -16 CLK
FLAG 1008 -48 P0
FLAG 1008 16 notP0
FLAG 1280 16 notP1
FLAG 1552 16 notP2
FLAG 1824 16 notP3
FLAG 1280 -48 P1
FLAG 1552 -48 P2
FLAG 1824 -48 P3
FLAG 816 -48 P0+
FLAG 1088 -48 P1+
FLAG 1360 -48 P2+
FLAG 1632 -48 P3+
FLAG 672 -368 notP0
FLAG 688 -368 P0+
FLAG 768 -512 P1+
FLAG 656 -528 P1
FLAG 656 -496 P0
FLAG 1312 -512 P2+
FLAG 992 -576 notP1
FLAG 992 -544 P2
FLAG 992 -464 notP0
FLAG 992 -432 P2
FLAG 992 -352 notP2
FLAG 992 -320 P0
FLAG 992 -288 P1
FLAG 1680 -400 notP2
FLAG 1680 -432 P3
FLAG 1680 -512 notP1
FLAG 1680 -544 P3
FLAG 1680 -624 P3
FLAG 1680 -656 P2
FLAG 1680 -688 notP0
FLAG 1680 -768 notP3
FLAG 1680 -800 P2
FLAG 1680 -912 P0
FLAG 1680 -880 P1
FLAG 1952 -464 P3+
FLAG 1072 -1456 ca0
FLAG 1072 -1424 cb0
FLAG 1072 -1344 ca1
FLAG 1072 -1312 cb1
FLAG 1072 -1232 ca2
FLAG 1072 -1200 cb2
FLAG 1072 -1120 ca3
FLAG 1072 -1088 cb3
FLAG -1136 -672 ca0
FLAG -1136 -624 ca1
FLAG -1136 -576 ca2
FLAG -1136 -528 ca3
FLAG -1136 -368 cb0
FLAG -1136 -320 cb1
FLAG -1136 -272 cb2
FLAG -1136 -224 cb3
FLAG -1216 -672 P0
FLAG -1216 -624 P1
FLAG -1216 -576 P2
FLAG -1216 -528 P3
FLAG -1216 -320 VCC
FLAG -1216 -272 VCC
FLAG 192 -496 OV
FLAG -32 -560 P0
FLAG -32 -528 P1
FLAG -32 -448 P2
FLAG -32 -416 P3
FLAG 912 464 VCC
FLAG 912 240 VCC
FLAG 816 352 CLK
FLAG 1008 320 Ppwm
FLAG 1008 384 notPpwm
FLAG 816 320 Ppwm+
FLAG 1504 368 OV
FLAG 1392 384 Ppwm
FLAG 1520 -1280 notCMP
FLAG 1392 416 notCMP
FLAG 1616 384 Ppwm+
FLAG -1216 -368 VCC
FLAG -1216 -224 0
SYMBOL voltage -16 144 R0
WINDOW 123 0 0 Left 0
WINDOW 39 0 0 Left 0
SYMATTR InstName V1
SYMATTR Value PULSE(0 5 0 1n 1n 10m 20m)
SYMBOL voltage -128 144 R0
WINDOW 123 0 0 Left 0
WINDOW 39 0 0 Left 0
SYMATTR InstName V2
SYMATTR Value 5
SYMBOL Dig_Add\\74HC\\74hc74 912 -128 R0
SYMATTR InstName U1
SYMBOL Dig_Add\\74HC\\74hc74 1184 -128 R0
SYMATTR InstName U2
SYMBOL Dig_Add\\74HC\\74hc74 1456 -128 R0
SYMATTR InstName U3
SYMBOL Dig_Add\\74HC\\74hc74 1728 -128 R0
SYMATTR InstName U4
SYMBOL Dig_Add\\Logic\\XOR_2i.il 704 -576 R0
SYMATTR InstName U5
SYMBOL Dig_Add\\Logic\\OR_4i.il 1248 -608 R0
SYMATTR InstName U6
SYMBOL Dig_Add\\Logic\\AND_2i.il 1040 -624 R0
SYMATTR InstName U7
SYMBOL Dig_Add\\Logic\\AND_2i.il 1040 -512 R0
SYMATTR InstName U8
SYMBOL Dig_Add\\Logic\\AND_3i.il 1040 -400 R0
SYMATTR InstName U9
SYMBOL Dig_Add\\Logic\\OR_4i.il 1888 -560 R0
SYMATTR InstName U10
SYMBOL Dig_Add\\Logic\\AND_2i.il 1728 -480 R0
SYMATTR InstName U11
SYMBOL Dig_Add\\Logic\\AND_2i.il 1728 -592 R0
SYMATTR InstName U12
SYMBOL Dig_Add\\Logic\\AND_3i.il 1728 -736 R0
SYMATTR InstName U13
SYMBOL Dig_Add\\Logic\\AND_2i.il 1728 -848 R0
SYMATTR InstName U14
SYMBOL Dig_Add\\Logic\\AND_2i.il 1728 -960 R0
SYMATTR InstName U15
SYMBOL Dig_Add\\Logic\\AND_2i.il 1840 -912 R0
SYMATTR InstName U16
SYMBOL Dig_Add\\Logic\\XNOR_2i.il 1120 -1168 R0
SYMATTR InstName U17
SYMBOL Dig_Add\\Logic\\XNOR_2i.il 1120 -1280 R0
SYMATTR InstName U18
SYMBOL Dig_Add\\Logic\\XNOR_2i.il 1120 -1392 R0
SYMATTR InstName U19
SYMBOL Dig_Add\\Logic\\XNOR_2i.il 1120 -1504 R0
SYMATTR InstName U20
SYMBOL Dig_Add\\Logic\\AND_2i.il 1232 -1456 R0
SYMATTR InstName U21
SYMBOL Dig_Add\\Logic\\AND_2i.il 1232 -1216 R0
SYMATTR InstName U22
SYMBOL Dig_Add\\Logic\\AND_2i.il 1344 -1344 R0
SYMATTR InstName U23
SYMBOL Dig_Add\\Logic\\AND_2i.il 16 -608 R0
SYMATTR InstName U24
SYMBOL Dig_Add\\Logic\\AND_2i.il 16 -496 R0
SYMATTR InstName U25
SYMBOL Dig_Add\\Logic\\AND_2i.il 128 -560 R0
SYMATTR InstName U26
SYMBOL Dig_Add\\74HC\\74hc74 912 240 R0
SYMATTR InstName U27
SYMBOL Dig_Add\\Logic\\AND_2i.il 1440 336 R0
SYMATTR InstName U28
SYMBOL Dig_Add\\Logic\\OR_2i.il 1552 320 R0
SYMATTR InstName U29
SYMBOL Dig_Add\\Logic\\NOT_1i.il 1456 -1328 R0
SYMATTR InstName U30
TEXT -162 264 Left 2 !.tran 320m
